data/IEEETestCases/34Bus/ieee34-1_Curr_Elem.Txt

CIRCUIT ELEMENT CURRENTS

(Currents into element from indicated bus)

Power Delivery Elements

  Bus     Phase    Magnitude, A     Angle      (Real)   +j  (Imag)

ELEMENT = "Vsource.SOURCE"
SOURCEBUS     1           16.775 /_ -162.7 =    -16.016 +j   -4.9903
SOURCEBUS     2           14.963 /_   83.4 =     1.7158 +j    14.864
SOURCEBUS     3           17.378 /_  -34.6 =       14.3 +j   -9.8742
------------
SOURCEBUS     0           16.775 /_   17.3 =     16.016 +j    4.9903
SOURCEBUS     0           14.963 /_  -96.6 =    -1.7158 +j   -14.864
SOURCEBUS     0           17.378 /_  145.4 =      -14.3 +j    9.8742

ELEMENT = "Transformer.SUBXF"
SOURCEBUS     1           16.775 /_   17.3 =     16.016 +j    4.9903
SOURCEBUS     2           14.963 /_  -96.6 =    -1.7158 +j   -14.864
SOURCEBUS     3           17.378 /_  145.4 =      -14.3 +j    9.8742
SOURCEBUS     0                0 /_    0.0 =          0 +j         0
SOURCEBUS Resid      5.8208E-010 /_  126.9 =   -3.4925E-010 +j 4.6566E-010
------------
800           1           51.187 /_  167.3 =    -49.943 +j    11.219
800           2           44.295 /_   52.6 =     26.926 +j    35.171
800           3           40.717 /_  -62.7 =     18.692 +j   -36.173
800           0           11.095 /_  -67.1 =     4.3252 +j   -10.217
800       Resid      3.4925E-010 /_  180.0 =   -3.4925E-010 +j         0

ELEMENT = "Line.L1"
800           1           51.187 /_  -12.7 =     49.943 +j   -11.219
800           2           44.295 /_ -127.4 =    -26.926 +j   -35.171
800           3           40.717 /_  117.3 =    -18.692 +j    36.173
800       Resid           11.095 /_  112.9 =     -4.3252 +j    10.217
------------
802           1           51.201 /_  167.3 =    -49.946 +j    11.267
802           2           44.295 /_   52.5 =     26.962 +j    35.144
802           3           40.721 /_  -62.7 =     18.657 +j   -36.196
802       Resid           11.094 /_  -67.0 =      4.3273 +j   -10.215

ELEMENT = "Line.L2"
802           1           51.201 /_  -12.7 =     49.946 +j   -11.267
802           2           43.245 /_ -127.0 =    -26.033 +j   -34.532
802           3           39.873 /_  117.9 =    -18.645 +j    35.246
802       Resid           11.795 /_  116.5 =     -5.2681 +j    10.554
------------
806           1           51.211 /_  167.3 =    -49.949 +j      11.3
806           2           43.245 /_   52.9 =     26.058 +j    34.513
806           3           39.876 /_  -62.2 =     18.621 +j   -35.261
806       Resid           11.795 /_  -63.5 =      5.2695 +j   -10.552

ELEMENT = "Line.L3"
806           1           51.211 /_  -12.7 =     49.949 +j     -11.3
806           2           42.198 /_ -126.5 =    -25.127 +j   -33.901
806           3           39.032 /_  118.5 =     -18.61 +j     34.31
806       Resid           12.538 /_  119.7 =     -6.2112 +j    10.892
------------
808           1           51.383 /_  166.6 =    -49.987 +j    11.898
808           2            42.19 /_   52.7 =     25.575 +j    33.555
808           3           39.074 /_  -62.3 =     18.174 +j   -34.591
808       Resid           12.525 /_  -60.1 =      6.2373 +j   -10.862

ELEMENT = "Line.L4"
808           2          0.59757 /_ -142.3 =   -0.47296 +j  -0.36524
------------
810           2           0.6259 /_   31.8 =    0.53192 +j   0.32988

ELEMENT = "Line.L5"
808           1           51.383 /_  -13.4 =     49.987 +j   -11.898
808           2            41.03 /_ -126.8 =     -24.57 +j    -32.86
808           3           39.074 /_  117.7 =    -18.174 +j    34.591
808       Resid           12.482 /_  125.5 =     -7.2423 +j    10.167
------------
812           1           51.577 /_  165.9 =    -50.021 +j    12.573
812           2           41.017 /_   52.3 =     25.077 +j    32.458
812           3           39.123 /_  -63.1 =     17.672 +j   -34.904
812       Resid           12.468 /_  -54.3 =      7.2724 +j   -10.128

ELEMENT = "Line.L6"
812           1           51.577 /_  -14.1 =     50.021 +j   -12.573
812           2           41.017 /_ -127.7 =    -25.077 +j   -32.458
812           3           39.123 /_  116.9 =    -17.672 +j    34.904
812       Resid           12.468 /_  125.7 =     -7.2724 +j    10.128
------------
814           1           51.726 /_  165.3 =    -50.042 +j    13.093
814           2           41.008 /_   51.6 =     25.467 +j    32.142
814           3            39.16 /_  -63.8 =     17.279 +j   -35.142
814       Resid           12.454 /_  -54.1 =      7.2958 +j   -10.093

ELEMENT = "Line.L7"
814R          1           48.117 /_  -14.7 =      46.55 +j   -12.178
814R          2           39.765 /_ -128.4 =    -24.694 +j   -31.169
814R          3           37.973 /_  116.2 =    -16.757 +j    34.076
814R      Resid           10.581 /_  118.8 =     -5.0998 +j    9.2705
------------
850           1           48.117 /_  165.3 =    -46.551 +j    12.178
850           2           39.765 /_   51.6 =     24.694 +j    31.168
850           3           37.973 /_  -63.8 =     16.757 +j   -34.076
850       Resid           10.581 /_  -61.2 =      5.0998 +j   -9.2705

ELEMENT = "Line.L8"
816           1           13.004 /_  -26.7 =     11.617 +j   -5.8453
------------
818           1           13.013 /_  153.2 =    -11.616 +j    5.8653

ELEMENT = "Line.L9"
816           1           35.504 /_  -10.3 =     34.934 +j   -6.3383
816           2            39.66 /_ -128.4 =    -24.654 +j   -31.067
816           3           37.905 /_  116.3 =    -16.797 +j     33.98
816       Resid           7.3617 /_   27.7 =      6.5165 +j    3.4249
------------
824           1           35.542 /_  169.4 =    -34.939 +j     6.517
824           2           39.657 /_   51.3 =     24.784 +j    30.958
824           3           37.918 /_  -63.9 =     16.664 +j    -34.06
824       Resid           7.3508 /_ -152.3 =     -6.5089 +j   -3.4159

ELEMENT = "Line.L10"
818           1           11.669 /_  -26.6 =     10.438 +j   -5.2165
------------
820           1           11.909 /_  151.0 =    -10.416 +j    5.7727

ELEMENT = "Line.L11"
820           1           5.2712 /_  -28.2 =     4.6434 +j   -2.4948
------------
822           1           5.3415 /_  150.2 =     -4.637 +j    2.6514

ELEMENT = "Line.L12"
824           2           1.5399 /_ -148.3 =    -1.3107 +j  -0.80828
------------
826           2           1.5554 /_   30.5 =     1.3404 +j   0.78901

ELEMENT = "Line.L13"
824           1           35.542 /_  -10.6 =     34.939 +j    -6.517
824           2           36.663 /_ -127.0 =    -22.088 +j   -29.263
824           3            37.71 /_  116.3 =    -16.706 +j    33.807
824       Resid           4.3299 /_   27.1 =      3.8546 +j    1.9723
------------
828           1           35.545 /_  169.4 =    -34.939 +j    6.5316
828           2           36.662 /_   52.9 =     22.099 +j    29.254
828           3           37.711 /_  -63.7 =     16.695 +j   -33.814
828       Resid            4.329 /_ -152.9 =     -3.8539 +j   -1.9716

ELEMENT = "Line.L14"
828           1           35.291 /_  -10.5 =     34.702 +j    -6.418
828           2           36.662 /_ -127.1 =    -22.099 +j   -29.254
828           3           37.571 /_  116.4 =    -16.692 +j     33.66
828       Resid            4.556 /_   26.2 =      4.0877 +j    2.0118
------------
830           1           35.365 /_  169.0 =    -34.711 +j    6.7707
830           2           36.647 /_   52.4 =     22.355 +j    29.039
830           3           37.595 /_  -64.1 =     16.428 +j   -33.815
830       Resid           4.5341 /_ -153.9 =      -4.072 +j   -1.9942

ELEMENT = "Line.L15"
830           1           33.897 /_   -9.8 =       33.4 +j   -5.7844
830           2           35.929 /_ -127.1 =    -21.685 +j   -28.647
830           3           36.286 /_  116.2 =    -16.028 +j    32.554
830       Resid           4.7036 /_   23.5 =      4.3126 +j    1.8775
------------
854           1           33.899 /_  170.2 =      -33.4 +j    5.7933
854           2           35.929 /_   52.9 =     21.692 +j    28.642
854           3           36.287 /_  -63.8 =     16.021 +j   -32.558
854       Resid            4.703 /_ -156.5 =     -4.3122 +j   -1.8771

ELEMENT = "Line.L16"
832           1           20.952 /_    1.0 =     20.949 +j   0.35396
832           2           23.176 /_ -116.2 =    -10.241 +j   -20.791
832           3             24.1 /_  128.5 =    -15.008 +j    18.857
832       Resid           4.5807 /_   20.2 =      4.2997 +j    1.5796
------------
858           1           20.952 /_ -179.3 =     -20.95 +j   -0.2664
858           2           23.155 /_   63.6 =     10.303 +j    20.737
858           3           24.089 /_  -51.7 =     14.942 +j   -18.894
858       Resid           4.5751 /_ -159.9 =     -4.2952 +j   -1.5757

ELEMENT = "Line.L17"
834           1           8.4732 /_  -39.8 =     6.5144 +j   -5.4182
834           2           8.3712 /_ -155.5 =    -7.6192 +j   -3.4676
834           3           7.8939 /_   95.0 =    -0.6899 +j    7.8637
834       Resid           2.0654 /_   29.7 =      1.7947 +j    1.0221
------------
860           1           8.4964 /_  140.1 =    -6.5146 +j    5.4542
860           2           8.3852 /_   24.3 =     7.6447 +j    3.4452
860           3           7.9067 /_  -85.2 =    0.66279 +j   -7.8789
860       Resid           2.0629 /_ -150.4 =     -1.7929 +j   -1.0205

ELEMENT = "Line.L18"
834           1            14.76 /_   34.6 =     12.143 +j    8.3919
834           2           16.316 /_  -95.6 =       -1.6 +j   -16.237
834           3           15.121 /_  151.0 =    -13.228 +j    7.3251
834       Resid           2.7355 /_   11.0 =      2.6856 +j   0.52035
------------
842           1           14.758 /_ -145.4 =    -12.143 +j   -8.3869
842           2           16.313 /_   84.4 =     1.6035 +j    16.234
842           3           15.119 /_  -29.0 =     13.225 +j   -7.3272
842       Resid           2.7352 /_ -169.0 =     -2.6853 +j  -0.52013

ELEMENT = "Line.L19"
836           1           1.1234 /_  -27.0 =     1.0011 +j  -0.50985
836           2            1.554 /_ -154.4 =    -1.4012 +j  -0.67212
836           3           1.2606 /_   71.3 =    0.40322 +j    1.1944
836       Resid         0.012835 /_ -104.1 =   -0.0031267 +j -0.012448
------------
840           1           1.1306 /_  152.3 =    -1.0012 +j   0.52515
840           2           1.5598 /_   25.1 =      1.412 +j    0.6626
840           3           1.2705 /_ -109.1 =   -0.41476 +j   -1.2009
840       Resid         0.013697 /_   73.3 =    0.003926 +j  0.013122

ELEMENT = "Line.L20"
836           1        0.0049821 /_   90.4 =  -3.5578E-005 +j  0.004982
836           2           2.0872 /_ -149.4 =    -1.7966 +j   -1.0622
836           3        0.0043053 /_ -150.8 =  -0.0037572 +j -0.0021021
836       Resid            2.089 /_   30.5 =      1.8004 +j    1.0594
------------
862           1      9.7956E-012 /_   21.8 =  9.0949E-012 +j 3.638E-012
862           2           2.0886 /_   30.5 =     1.8002 +j    1.0591
862           3           3E-011 /_ -104.0 =  -7.276E-012 +j -2.9104E-011
862       Resid           2.0886 /_ -149.5 =     -1.8002 +j   -1.0591

ELEMENT = "Line.L21"
842           1           14.626 /_   35.9 =      11.85 +j    8.5726
842           2           16.313 /_  -95.6 =    -1.6035 +j   -16.234
842           3           15.119 /_  151.0 =    -13.225 +j    7.3272
842       Resid           2.9971 /_    6.4 =      2.9784 +j   0.33443
------------
844           1           14.612 /_ -144.2 =     -11.85 +j   -8.5486
844           2             16.3 /_   84.3 =     1.6206 +j    16.219
844           3           15.108 /_  -29.1 =     13.207 +j   -7.3373
844       Resid           2.9958 /_ -173.6 =     -2.9772 +j  -0.33338

ELEMENT = "Line.L22"
844           1           9.8407 /_   78.8 =     1.9047 +j    9.6546
844           2            9.393 /_  -58.1 =     4.9597 +j   -7.9769
844           3            9.594 /_ -166.2 =    -9.3165 +j   -2.2906
844       Resid           2.5275 /_   14.0 =      2.4521 +j   0.61286
------------
846           1           9.7772 /_ -101.2 =    -1.9051 +j   -9.5898
846           2           9.3346 /_  121.8 =    -4.9138 +j    7.9365
846           3             9.54 /_   13.7 =     9.2676 +j    2.2633
846       Resid           2.5236 /_ -166.0 =     -2.4487 +j  -0.61002

ELEMENT = "Line.L23"
846           1           9.7772 /_   78.8 =     1.9051 +j    9.5898
846           2           9.5631 /_  -47.4 =     6.4714 +j   -7.0408
846           3           9.7871 /_ -162.0 =    -9.3056 +j    -3.032
846       Resid           1.0472 /_   27.5 =     0.92912 +j   0.48302
------------
848           1           9.7679 /_ -101.2 =    -1.9051 +j   -9.5804
848           2           9.5542 /_  132.6 =    -6.4647 +j     7.035
848           3           9.7791 /_   18.0 =     9.2985 +j     3.028
848       Resid           1.0465 /_ -152.5 =    -0.92863 +j  -0.48261

ELEMENT = "Line.L24"
850           1           48.117 /_  -14.7 =     46.551 +j   -12.178
850           2           39.765 /_ -128.4 =    -24.694 +j   -31.168
850           3           37.973 /_  116.2 =    -16.757 +j    34.076
850       Resid           10.581 /_  118.8 =     -5.0998 +j    9.2705
------------
816           1           48.119 /_  165.3 =    -46.551 +j    12.184
816           2           39.765 /_   51.6 =     24.698 +j    31.165
816           3           37.974 /_  -63.8 =     16.753 +j   -34.079
816       Resid           10.581 /_  -61.2 =      5.1001 +j   -9.2703

ELEMENT = "Line.L25"
852R          1           31.464 /_  -10.9 =       30.9 +j   -5.9302
852R          2           33.339 /_ -128.3 =     -20.67 +j   -26.158
852R          3            33.79 /_  115.4 =    -14.471 +j    30.535
852R      Resid           4.5164 /_   20.1 =       4.241 +j     1.553
------------
832           1           31.464 /_  169.1 =      -30.9 +j    5.9304
832           2           33.339 /_   51.7 =      20.67 +j    26.158
832           3            33.79 /_  -64.6 =      14.47 +j   -30.535
832       Resid           4.5164 /_ -159.9 =      -4.241 +j    -1.553

ELEMENT = "Transformer.XFM1"
832           1           11.678 /_  -32.3 =     9.8686 +j   -6.2437
832           2           11.702 /_ -152.8 =    -10.406 +j   -5.3538
832           3            11.61 /_   87.3 =      0.537 +j    11.597
832           0       0.00035748 /_   40.1 =  0.00027336 +j 0.00023036
832       Resid      9.4815E-008 /_ -158.1 =   -8.7981E-008 +j -3.5345E-008
------------
888           1           69.899 /_  147.7 =    -59.069 +j    37.372
888           2           70.045 /_   27.2 =     62.285 +j    32.045
888           3            69.49 /_  -92.7 =    -3.2142 +j   -69.416
888           0        0.0021397 /_ -139.9 =  -0.0016362 +j -0.0013788
888       Resid      5.6757E-007 /_ -158.1 =   -5.2666E-007 +j -2.1157E-007

ELEMENT = "Line.L26"
854           2          0.24238 /_  -68.5 =   0.088808 +j  -0.22553
------------
856           2          0.15576 /_   30.0 =    0.13488 +j    0.0779

ELEMENT = "Line.L27"
854           1           33.899 /_   -9.8 =       33.4 +j   -5.7933
854           2           35.659 /_ -127.4 =    -21.645 +j   -28.339
854           3           36.287 /_  116.2 =    -16.021 +j    32.558
854       Resid           4.5471 /_   20.2 =      4.2662 +j    1.5736
------------
852           1            34.02 /_  169.1 =     -33.41 +j    6.4135
852           2           35.631 /_   51.7 =     22.093 +j    27.955
852           3           36.325 /_  -64.6 =     15.555 +j   -32.826
852       Resid            4.509 /_ -160.0 =     -4.2368 +j   -1.5431

ELEMENT = "Line.L28"
858           1         0.068736 /_  -15.3 =   0.066312 +j  -0.01809
------------
864           1          0.07516 /_  150.2 =  -0.065227 +j  0.037342

ELEMENT = "Line.L29"
858           1           20.524 /_    1.7 =     20.515 +j   0.61639
858           2           22.766 /_ -116.1 =    -10.018 +j   -20.444
858           3           23.636 /_  129.3 =    -14.983 +j     18.28
858       Resid            4.745 /_   19.0 =      4.4857 +j     1.547
------------
834           1           20.522 /_ -178.6 =    -20.515 +j  -0.51246
834           2           22.741 /_   63.7 =     10.091 +j    20.379
834           3            23.62 /_  -50.9 =     14.904 +j   -18.324
834       Resid           4.7384 /_ -161.0 =     -4.4803 +j   -1.5424

ELEMENT = "Line.L30"
860           1           2.8076 /_  -27.1 =     2.5001 +j   -1.2775
860           2           5.1743 /_ -152.8 =    -4.6013 +j   -2.3667
860           3           2.6127 /_   83.4 =    0.30145 +j    2.5952
860       Resid           2.0832 /_   30.2 =      1.7998 +j     1.049
------------
836           1           2.8299 /_  152.1 =    -2.5004 +j    1.3252
836           2            5.191 /_   26.8 =     4.6351 +j    2.3371
836           3            2.637 /_  -97.4 =   -0.33741 +j   -2.6153
836       Resid             2.08 /_ -149.8 =     -1.7973 +j   -1.0469

ELEMENT = "Line.L31"
862           2           1.0321 /_ -148.0 =   -0.87564 +j   -0.5464
------------
838           2           1.0574 /_   29.0 =    0.92469 +j   0.51278

ELEMENT = "Line.L32"
888           1           69.899 /_  -32.3 =     59.069 +j   -37.372
888           2           70.045 /_ -152.8 =    -62.285 +j   -32.045
888           3            69.49 /_   87.3 =     3.2142 +j    69.416
888       Resid        0.0021403 /_   40.1 =   0.0016368 +j  0.001379
------------
890           1           69.914 /_  147.7 =    -59.068 +j    37.402
890           2           70.055 /_   27.2 =     62.306 +j    32.026
890           3           69.503 /_  -92.7 =    -3.2374 +j   -69.428
890       Resid      3.1553E-013 /_   97.8 =   -4.2633E-014 +j 3.1264E-013

ELEMENT = "Capacitor.C844"
844           1           7.1772 /_   86.7 =    0.41623 +j    7.1652
844           2           7.1669 /_  -34.5 =     5.9099 +j   -4.0543
844           3           7.1732 /_ -154.0 =    -6.4456 +j   -3.1479
844       Resid          0.12511 /_   17.2 =     0.11949 +j  0.037077
------------
844           0           7.1772 /_  -93.3 =   -0.41623 +j   -7.1652
844           0           7.1669 /_  145.5 =    -5.9099 +j    4.0543
844           0           7.1732 /_   26.0 =     6.4456 +j    3.1479
844       Resid          0.12511 /_ -162.8 =    -0.11949 +j -0.037077

ELEMENT = "Capacitor.C848"
848           1           10.769 /_   86.6 =    0.63402 +j     10.75
848           2            10.75 /_  -34.5 =     8.8593 +j   -6.0897
848           3           10.763 /_ -154.0 =    -9.6762 +j   -4.7137
848       Resid          0.19039 /_   16.2 =     0.18283 +j  0.053128
------------
848           0           10.769 /_  -93.4 =   -0.63402 +j    -10.75
848           0            10.75 /_  145.5 =    -8.8593 +j    6.0897
848           0           10.763 /_   26.0 =     9.6762 +j    4.7137
848       Resid          0.19039 /_ -163.8 =    -0.18283 +j -0.053128

ELEMENT = "Transformer.REG1A"
814           1           51.726 /_  -14.7 =     50.042 +j   -13.093
814           0           51.726 /_  165.3 =    -50.042 +j    13.092
------------
814R          1           48.117 /_  165.3 =     -46.55 +j    12.178
814R          0           48.117 /_  -14.7 =      46.55 +j   -12.179

ELEMENT = "Transformer.REG1B"
814           2           41.008 /_ -128.4 =    -25.467 +j   -32.142
814           0           41.008 /_   51.6 =     25.466 +j    32.142
------------
814R          2           39.765 /_   51.6 =     24.694 +j    31.169
814R          0           39.765 /_ -128.4 =    -24.695 +j   -31.168

ELEMENT = "Transformer.REG1C"
814           3            39.16 /_  116.2 =    -17.279 +j    35.142
814           0            39.16 /_  -63.8 =      17.28 +j   -35.141
------------
814R          3           37.973 /_  -63.8 =     16.757 +j   -34.076
814R          0           37.973 /_  116.2 =    -16.756 +j    34.076

ELEMENT = "Transformer.REG2A"
852           1            34.02 /_  -10.9 =      33.41 +j   -6.4135
852           0            34.02 /_  169.1 =     -33.41 +j    6.4128
------------
852R          1           31.464 /_  169.1 =      -30.9 +j    5.9302
852R          0           31.464 /_  -10.9 =       30.9 +j   -5.9309

ELEMENT = "Transformer.REG2B"
852           2           35.631 /_ -128.3 =    -22.093 +j   -27.955
852           0           35.631 /_   51.7 =     22.092 +j    27.956
------------
852R          2           33.339 /_   51.7 =      20.67 +j    26.158
852R          0           33.339 /_ -128.3 =    -20.671 +j   -26.157

ELEMENT = "Transformer.REG2C"
852           3           36.325 /_  115.4 =    -15.555 +j    32.826
852           0           36.325 /_  -64.6 =     15.555 +j   -32.825
------------
852R          3            33.79 /_  -64.6 =     14.471 +j   -30.535
852R          0            33.79 /_  115.4 =     -14.47 +j    30.535

= = = = = = = = = = = = = = = = = = =  = = = = = = = = = = =  = =

Power Conversion Elements

  Bus     Phase    Magnitude, A     Angle      (Real)   +j  (Imag)

ELEMENT = "Load.S860"
860           1            1.727 /_  -41.9 =     1.2844 +j   -1.1545
860           2           1.7293 /_ -163.1 =    -1.6544 +j  -0.50325
860           3           1.7278 /_   77.4 =    0.37693 +j    1.6862
860           0          0.02935 /_ -103.7 =  -0.0069331 +j -0.028519

ELEMENT = "Load.S840"
840           1          0.79311 /_  -41.2 =    0.59709 +j  -0.52202
840           2          0.79311 /_ -162.3 =   -0.75555 +j  -0.24117
840           3          0.79311 /_   78.2 =    0.16239 +j   0.77631
840           0         0.013697 /_ -106.7 =  -0.0039262 +j -0.013122

ELEMENT = "Load.S844"
844           1           12.275 /_  -41.2 =     9.2359 +j   -8.0853
844           2           12.257 /_ -162.3 =    -11.679 +j   -3.7213
844           3           12.268 /_   78.2 =     2.5182 +j    12.007
844           0          0.21397 /_ -110.6 =  -0.075412 +j  -0.20024

ELEMENT = "Load.S848"
848           1           1.7276 /_  -42.6 =     1.2711 +j   -1.1699
848           2           1.7276 /_ -162.6 =    -1.6488 +j  -0.51576
848           3           1.7275 /_   77.4 =    0.37767 +j    1.6857

ELEMENT = "Load.S830A"
830           1          0.44828 /_    0.5 =    0.44826 +j  0.004226
830           2          0.44828 /_ -179.5 =   -0.44826 +j -0.004226

ELEMENT = "Load.S830B"
830           2          0.44601 /_ -119.7 =   -0.22126 +j  -0.38726
830           3          0.44601 /_   60.3 =    0.22126 +j   0.38726

ELEMENT = "Load.S830C"
830           3           1.0723 /_  125.4 =   -0.62141 +j   0.87388
830           1           1.0723 /_  -54.6 =    0.62141 +j  -0.87388

ELEMENT = "Load.S890"
890           1           69.915 /_  -32.3 =     59.069 +j   -37.403
890           2           70.055 /_ -152.8 =    -62.306 +j   -32.026
890           3           69.504 /_   87.3 =     3.2374 +j    69.428

ELEMENT = "Load.D802_806SB"
802           2           1.1127 /_ -146.6 =   -0.92926 +j  -0.61196
802           0           1.1127 /_   33.4 =    0.92926 +j   0.61196

ELEMENT = "Load.D802_806RB"
806           2           1.1137 /_ -146.7 =   -0.93062 +j  -0.61181
806           0           1.1137 /_   33.3 =    0.93062 +j   0.61181

ELEMENT = "Load.D802_806SC"
802           3          0.95052 /_   90.7 =    -0.0116 +j   0.95045
802           0          0.95052 /_  -89.3 =     0.0116 +j  -0.95045

ELEMENT = "Load.D802_806RC"
806           3          0.95144 /_   90.7 =  -0.011057 +j   0.95138
806           0          0.95144 /_  -89.3 =   0.011057 +j  -0.95138

ELEMENT = "Load.D808_810SB"
808           2          0.62592 /_ -148.2 =   -0.53195 +j  -0.32986
808           0          0.62592 /_   31.8 =    0.53195 +j   0.32986

ELEMENT = "Load.D808_810RB"
810           2           0.6259 /_ -148.2 =   -0.53192 +j  -0.32988
810           0           0.6259 /_   31.8 =    0.53192 +j   0.32988

ELEMENT = "Load.D818_820SA"
818           1           1.3444 /_  -28.9 =     1.1775 +j  -0.64884
818           0           1.3444 /_  151.1 =    -1.1775 +j   0.64884

ELEMENT = "Load.D818_820RA"
820           1           1.3131 /_  -28.9 =     1.1494 +j  -0.63491
820           0           1.3131 /_  151.1 =    -1.1494 +j   0.63491

ELEMENT = "Load.D820_822SA"
820           1           5.3251 /_  -29.8 =     4.6229 +j    -2.643
820           0           5.3251 /_  150.2 =    -4.6229 +j     2.643

ELEMENT = "Load.D820_822RA"
822           1           5.3415 /_  -29.8 =      4.637 +j   -2.6514
822           0           5.3415 /_  150.2 =     -4.637 +j    2.6514

ELEMENT = "Load.D816_824SB"
816           2          0.10814 /_ -114.3 =  -0.044438 +j -0.098583
816           3          0.10814 /_   65.7 =   0.044438 +j  0.098583

ELEMENT = "Load.D816_824RB"
824           2          0.10814 /_ -114.5 =   -0.04482 +j  -0.09841
824           3          0.10814 /_   65.5 =    0.04482 +j   0.09841

ELEMENT = "Load.D824_826SB"
824           2           1.5554 /_ -149.5 =    -1.3404 +j  -0.78902
824           0           1.5554 /_   30.5 =     1.3404 +j   0.78902

ELEMENT = "Load.D824_826RB"
826           2           1.5554 /_ -149.5 =    -1.3404 +j  -0.78901
826           0           1.5554 /_   30.5 =     1.3404 +j   0.78901

ELEMENT = "Load.D824_828SC"
824           3          0.15375 /_   91.2 =  -0.003163 +j   0.15371
824           0          0.15375 /_  -88.8 =   0.003163 +j  -0.15371

ELEMENT = "Load.D824_828RC"
828           3          0.15385 /_   91.2 =  -0.0031113 +j   0.15382
828           0          0.15385 /_  -88.8 =  0.0031113 +j  -0.15382

ELEMENT = "Load.D828_830SA"
828           1          0.26275 /_  -25.6 =    0.23694 +j  -0.11358
828           0          0.26275 /_  154.4 =   -0.23694 +j   0.11358

ELEMENT = "Load.D828_830RA"
830           1          0.26748 /_  -25.9 =    0.24068 +j   -0.1167
830           0          0.26748 /_  154.1 =   -0.24068 +j    0.1167

ELEMENT = "Load.D854_856SB"
854           2          0.15575 /_ -150.0 =   -0.13486 +j -0.077909
854           0          0.15575 /_   30.0 =    0.13486 +j  0.077909

ELEMENT = "Load.D854_856RB"
856           2          0.15576 /_ -150.0 =   -0.13488 +j   -0.0779
856           0          0.15576 /_   30.0 =    0.13488 +j    0.0779

ELEMENT = "Load.D832_858SA"
832           1         0.091564 /_  -26.4 =    0.08204 +j -0.040662
832           0         0.091564 /_  153.6 =   -0.08204 +j  0.040662

ELEMENT = "Load.D832_858RA"
858           1          0.09136 /_  -26.4 =   0.081815 +j -0.040657
858           0          0.09136 /_  153.6 =  -0.081815 +j  0.040657

ELEMENT = "Load.D832_858SB"
832           2          0.02685 /_ -150.8 =  -0.023434 +j -0.013106
832           0          0.02685 /_   29.2 =   0.023434 +j  0.013106

ELEMENT = "Load.D832_858RB"
858           2          0.02679 /_ -150.9 =  -0.023403 +j -0.013039
858           0          0.02679 /_   29.1 =   0.023403 +j  0.013039

ELEMENT = "Load.D832_858SC"
832           3         0.080585 /_   89.7 =  0.00037091 +j  0.080584
832           0         0.080585 /_  -90.3 =  -0.00037091 +j -0.080584

ELEMENT = "Load.D832_858RC"
858           3         0.080415 /_   89.6 =  0.00052304 +j  0.080413
858           0         0.080415 /_  -90.4 =  -0.00052304 +j -0.080413

ELEMENT = "Load.D858_864SB"
858           1          0.07516 /_  -29.8 =   0.065227 +j -0.037342
858           0          0.07516 /_  150.2 =  -0.065227 +j  0.037342

ELEMENT = "Load.D858_864RB"
864           1          0.07516 /_  -29.8 =   0.065227 +j -0.037342
864           0          0.07516 /_  150.2 =  -0.065227 +j  0.037342

ELEMENT = "Load.D858_834SA"
858           1         0.086374 /_   -0.4 =   0.086372 +j -0.00053401
858           2         0.086374 /_  179.6 =  -0.086372 +j 0.00053401

ELEMENT = "Load.D858_834RA"
834           1         0.086583 /_   -0.4 =    0.08658 +j -0.00067301
834           2         0.086583 /_  179.6 =   -0.08658 +j 0.00067301

ELEMENT = "Load.D858_834SB"
858           2          0.33108 /_ -122.1 =   -0.17604 +j  -0.28039
858           3          0.33108 /_   57.9 =    0.17604 +j   0.28039

ELEMENT = "Load.D858_834RB"
834           2          0.33188 /_ -122.2 =   -0.17704 +j  -0.28071
834           3          0.33188 /_   57.8 =    0.17704 +j   0.28071

ELEMENT = "Load.D858_834SC"
858           3          0.28748 /_  118.2 =   -0.13582 +j   0.25337
858           1          0.28748 /_  -61.8 =    0.13582 +j  -0.25337

ELEMENT = "Load.D858_834RC"
834           3          0.28829 /_  118.1 =   -0.13575 +j   0.25433
834           1          0.28829 /_  -61.9 =    0.13575 +j  -0.25433

ELEMENT = "Load.D834_860SA"
834           1          0.37256 /_   -0.4 =    0.37255 +j -0.0028959
834           2          0.37256 /_  179.6 =   -0.37255 +j 0.0028959

ELEMENT = "Load.D834_860RA"
860           1          0.37242 /_   -0.4 =    0.37241 +j -0.0028717
860           2          0.37242 /_  179.6 =   -0.37241 +j 0.0028717

ELEMENT = "Load.D834_860SB"
834           2          0.46184 /_ -120.7 =   -0.23601 +j  -0.39699
834           3          0.46184 /_   59.3 =    0.23601 +j   0.39699

ELEMENT = "Load.D834_860RB"
860           2          0.46167 /_ -120.7 =   -0.23593 +j  -0.39684
860           3          0.46167 /_   59.3 =    0.23593 +j   0.39684

ELEMENT = "Load.D834_860SC"
834           3           2.5398 /_  119.8 =    -1.2632 +j    2.2033
834           1           2.5398 /_  -60.2 =     1.2632 +j   -2.2033

ELEMENT = "Load.D834_860RC"
860           3           2.5387 /_  119.8 =    -1.2627 +j    2.2023
860           1           2.5387 /_  -60.2 =     1.2627 +j   -2.2023

ELEMENT = "Load.D860_836SA"
860           1          0.64962 /_   -0.4 =     0.6496 +j -0.0050092
860           2          0.64962 /_  179.6 =    -0.6496 +j 0.0050092

ELEMENT = "Load.D860_836RA"
836           1          0.64979 /_   -0.4 =    0.64977 +j -0.0050323
836           2          0.64979 /_  179.6 =   -0.64977 +j 0.0050323

ELEMENT = "Load.D860_836SB"
860           2          0.22775 /_ -125.1 =   -0.13106 +j  -0.18627
860           3          0.22775 /_   54.9 =    0.13106 +j   0.18627

ELEMENT = "Load.D860_836RB"
836           2          0.22781 /_ -125.1 =   -0.13108 +j  -0.18632
836           3          0.22781 /_   54.9 =    0.13108 +j   0.18632

ELEMENT = "Load.D860_836SC"
860           3          0.92616 /_  118.7 =   -0.44543 +j   0.81201
860           1          0.92616 /_  -61.3 =    0.44543 +j  -0.81201

ELEMENT = "Load.D860_836RC"
836           3          0.92632 /_  118.7 =   -0.44551 +j   0.81215
836           1          0.92632 /_  -61.3 =    0.44551 +j  -0.81215

ELEMENT = "Load.D836_840SA"
836           1          0.40411 /_   -0.4 =     0.4041 +j -0.0031296
836           2          0.40411 /_  179.6 =    -0.4041 +j 0.0031296

ELEMENT = "Load.D836_840RA"
840           1          0.40411 /_   -0.4 =     0.4041 +j -0.0031302
840           2          0.40411 /_  179.6 =    -0.4041 +j 0.0031302

ELEMENT = "Load.D836_840SB"
836           2          0.49391 /_ -120.7 =   -0.25238 +j  -0.42456
836           3          0.49391 /_   59.3 =    0.25238 +j   0.42456

ELEMENT = "Load.D836_840RB"
840           2          0.49391 /_ -120.7 =   -0.25237 +j  -0.42456
840           3          0.49391 /_   59.3 =    0.25237 +j   0.42456

ELEMENT = "Load.D862_838SB"
862           2           1.0572 /_ -151.0 =   -0.92453 +j  -0.51273
862           0           1.0572 /_   29.0 =    0.92453 +j   0.51273

ELEMENT = "Load.D862_838RB"
838           2           1.0574 /_ -151.0 =   -0.92469 +j  -0.51278
838           0           1.0574 /_   29.0 =    0.92469 +j   0.51278

ELEMENT = "Load.D842_844SA"
842           1          0.34697 /_  -32.4 =     0.2931 +j  -0.18569
842           0          0.34697 /_  147.6 =    -0.2931 +j   0.18569

ELEMENT = "Load.D842_844RA"
844           1          0.34705 /_  -32.4 =    0.29309 +j  -0.18585
844           0          0.34705 /_  147.6 =   -0.29309 +j   0.18585

ELEMENT = "Load.D844_846SB"
844           2          0.93611 /_ -150.1 =   -0.81144 +j  -0.46675
844           0          0.93611 /_   29.9 =    0.81144 +j   0.46675

ELEMENT = "Load.D844_846RB"
846           2          0.93612 /_ -150.1 =   -0.81183 +j   -0.4661
846           0          0.93612 /_   29.9 =    0.81183 +j    0.4661

ELEMENT = "Load.D844_846SC"
844           3          0.76983 /_   87.2 =   0.037349 +j   0.76893
844           0          0.76983 /_  -92.8 =  -0.037349 +j  -0.76893

ELEMENT = "Load.D844_846RC"
846           3          0.76962 /_   87.2 =   0.038011 +j   0.76869
846           0          0.76962 /_  -92.8 =  -0.038011 +j  -0.76869

ELEMENT = "Load.D846_848SB"
846           2          0.86065 /_ -150.1 =   -0.74577 +j  -0.42958
846           0          0.86065 /_   29.9 =    0.74577 +j   0.42958

ELEMENT = "Load.D846_848RB"
848           2          0.86062 /_ -150.1 =    -0.7458 +j  -0.42948
848           0          0.86062 /_   29.9 =     0.7458 +j   0.42948

